GG2
     RDKit          3D

 34 38  0  0  0  0  0  0  0  0999 V2000
    9.5134    3.5839    8.8707 C   0  0  0  0  0  0  0  0  0  0  0  0
   10.6777    4.3292    8.7583 C   0  0  0  0  0  0  0  0  0  0  0  0
   10.6754    5.7069    8.9280 C   0  0  0  0  0  0  0  0  0  0  0  0
    9.5839    2.2068    8.6891 O   0  0  0  0  0  0  0  0  0  0  0  0
    9.0494    8.4594   10.4262 N   0  0  0  0  0  0  0  0  0  0  0  0
   10.8956    9.5951    5.0092 C   0  0  0  0  0  0  0  0  0  0  0  0
   10.5068    8.4220    7.1244 C   0  0  0  0  0  0  0  0  0  0  0  0
    9.1949    9.7803   10.1924 C   0  0  0  0  0  0  0  0  0  0  0  0
    8.8530   10.8824   11.0577 C   0  0  0  0  0  0  0  0  0  0  0  0
    9.7522    9.9021    8.9174 C   0  0  0  0  0  0  0  0  0  0  0  0
    9.9133    8.6398    8.4511 C   0  0  0  0  0  0  0  0  0  0  0  0
   12.0234    9.8825    2.8952 C   0  0  0  0  0  0  0  0  0  0  0  0
   10.1087    1.3607    9.6773 C   0  0  0  0  0  0  0  0  0  0  0  0
   10.8742    9.6124    2.1689 C   0  0  0  0  0  0  0  0  0  0  0  0
    9.8276   10.4046    0.1049 C   0  0  0  0  0  0  0  0  0  0  0  0
   11.7182    8.8490   -0.0779 C   0  0  0  0  0  0  0  0  0  0  0  0
   12.0190    9.6530   -1.3156 C   0  0  0  0  0  0  0  0  0  0  0  0
    9.7305    9.3212    4.2822 C   0  0  0  0  0  0  0  0  0  0  0  0
   11.2479   10.7748    7.1774 C   0  0  0  0  0  0  0  0  0  0  0  0
    9.5059    6.3592    9.2132 C   0  0  0  0  0  0  0  0  0  0  0  0
    8.3401    5.6340    9.3284 C   0  0  0  0  0  0  0  0  0  0  0  0
    8.3532    4.2572    9.1569 C   0  0  0  0  0  0  0  0  0  0  0  0
    9.4755    7.7722    9.3921 N   0  0  0  0  0  0  0  0  0  0  0  0
   10.8773    9.5796    6.4201 N   0  0  0  0  0  0  0  0  0  0  0  0
   12.0235    9.8716    4.2705 C   0  0  0  0  0  0  0  0  0  0  0  0
   10.8209    9.6111    0.7559 N   0  0  0  0  0  0  0  0  0  0  0  0
    9.7442    9.3354    2.9075 C   0  0  0  0  0  0  0  0  0  0  0  0
   10.6706    7.2968    6.6561 O   0  0  0  0  0  0  0  0  0  0  0  0
   10.7919    9.9286   -2.1425 C   0  0  0  0  0  0  0  0  0  0  0  0
    9.1866   11.3021    0.7081 O   0  0  0  0  0  0  0  0  0  0  0  0
    9.5558   10.1555   -1.3099 C   0  0  0  0  0  0  0  0  0  0  0  0
    8.8526   12.0458   10.5856 O   0  0  0  0  0  0  0  0  0  0  0  0
    8.5218   10.6825   12.4137 N   0  0  0  0  0  0  0  0  0  0  0  0
   10.1181   11.0797    8.1041 C   0  0  0  0  0  0  0  0  0  0  0  0
  1  2  2  0
  1  4  1  0
  1 22  1  0
  2  3  1  0
  3 20  2  0
  4 13  1  0
  5 23  1  0
  5  8  2  0
  6 25  2  0
  6 18  1  0
  6 24  1  0
  7 24  1  0
  7 28  2  0
  7 11  1  0
  8 10  1  0
  8  9  1  0
  9 32  2  0
  9 33  1  0
 10 34  1  0
 10 11  2  0
 11 23  1  0
 12 14  2  0
 12 25  1  0
 14 26  1  0
 14 27  1  0
 15 31  1  0
 15 30  2  0
 15 26  1  0
 16 17  1  0
 16 26  1  0
 17 29  1  0
 18 27  2  0
 19 24  1  0
 19 34  1  0
 20 23  1  0
 20 21  1  0
 21 22  2  0
 29 31  1  0
M  END
$$$$
